Version 4
SHEET 1 2540 680
WIRE 1792 -48 1568 -48
WIRE 1712 -16 1632 -16
WIRE 1632 96 1632 -16
WIRE 1568 112 1568 -48
WIRE 1600 112 1568 112
WIRE 1792 128 1792 -48
WIRE 1792 128 1664 128
WIRE 1888 128 1792 128
WIRE 1952 128 1888 128
WIRE 2064 128 1952 128
WIRE 1344 144 1168 144
WIRE 1456 144 1344 144
WIRE 1600 144 1456 144
WIRE 1888 144 1888 128
WIRE 1952 144 1952 128
WIRE 1168 192 1168 144
WIRE 1632 192 1632 160
WIRE 1168 208 1168 192
WIRE 1168 352 1168 288
FLAG 1168 352 0
FLAG 1632 272 0
FLAG 1344 208 0
FLAG 1712 64 0
FLAG 1456 208 0
FLAG 1888 208 0
FLAG 1952 208 0
FLAG 2064 128 out
FLAG 1168 192 in
SYMBOL bv 1168 192 R0
SYMATTR InstName B2
SYMATTR Value V=10+white(2e5*time)/10
SYMBOL cap 1328 144 R0
SYMATTR InstName C3
SYMATTR Value 0.1µ
SYMATTR SpiceLine V=4 Irms=1.62 Rser=0.0464862 Lser=0 mfg="KEMET" pn="C0402C104K7PAC" type="X5R"
SYMBOL polcap 1440 144 R0
WINDOW 3 24 56 Left 2
SYMATTR Value 10µ
SYMATTR InstName C4
SYMATTR Description Capacitor
SYMATTR Type cap
SYMATTR SpiceLine V=6.3 Irms=2.21565 Rser=0.055 Lser=0 mfg="KEMET" pn="A700V106M006ATE055" type="Al electrolytic"
SYMBOL voltage 1712 -32 R0
WINDOW 123 0 0 Left 0
WINDOW 39 0 0 Left 0
SYMATTR InstName V3
SYMATTR Value 14
SYMBOL voltage 1632 176 R0
WINDOW 123 0 0 Left 0
WINDOW 39 0 0 Left 0
SYMATTR InstName V4
SYMATTR Value -14
SYMBOL cap 1872 144 R0
SYMATTR InstName C1
SYMATTR Value 0.1µ
SYMBOL polcap 1936 144 R0
WINDOW 3 24 56 Left 2
SYMATTR Value 10µ
SYMATTR InstName C2
SYMATTR Description Capacitor
SYMATTR Type cap
SYMATTR SpiceLine V=8 Irms=2.21565 Rser=0.055 Lser=0 mfg="KEMET" pn="A700V106M008ATE055" type="Al electrolytic"
SYMBOL Opamps\\AD8675 2432 -208 R0
SYMATTR InstName U1
SYMBOL Opamps\\LT1007 2432 256 R0
SYMATTR InstName U3
SYMBOL Opamps\\LT1127 2432 16 R0
SYMATTR InstName U4
SYMBOL Opamps\\LT1028 2432 144 R0
SYMATTR InstName U5
SYMBOL Opamps\\OP07 2432 -96 R0
SYMATTR InstName U2
SYMBOL Opamps\\AD8674 2288 -208 R0
SYMATTR InstName U6
SYMBOL Opamps\\AD8671 1632 64 R0
SYMATTR InstName U7
TEXT 1124 376 Left 2 !.ac oct 100 1k 1meg
